*Heading
** Job name: Modal_Assembly Model name: Model-2
** Generated by: Abaqus/CAE Learning Edition 2023
*Preprint, echo=NO, model=NO, history=NO, contact=NO
**
** PARTS
**
*Part, name=Bipod
*Node
      1,           0.,           0.,           0.
      2, 0.0211967714, 0.0339219235,           0.
      3, 0.0423935428,  0.067843847,           0.
      4, 0.0635903105,  0.101765774,           0.
      5, 0.0835903138,  0.101765774,           0.
      6,   0.10359031,  0.101765774,           0.
      7,  0.124787085,  0.067843847,           0.
      8,   0.14598386, 0.0339219235,           0.
      9,  0.167180628,           0.,           0.
     10, 0.0158975776, 0.0254414435,           0.
     11, 0.0105983857, 0.0169609617,           0.
     12, 0.00529919285, 0.00848048087,           0.
     13, 0.0370943472, 0.0593633652,           0.
     14, 0.0317951553, 0.0508828871,           0.
     15, 0.0264959633, 0.0424024053,           0.
     16, 0.0582911186, 0.0932852924,           0.
     17, 0.0529919267, 0.0848048106,           0.
     18, 0.0476927347, 0.0763243288,           0.
     19, 0.0685903132,  0.101765774,           0.
     20, 0.0735903084,  0.101765774,           0.
** ... 13 like lines cut
*Element, type=B31
1,  2, 10
2, 10, 11
3, 11, 12
4, 12,  1
5,  3, 13
6, 13, 14
7, 14, 15
8, 15,  2
 9,  4, 16
10, 16, 17
11, 17, 18
12, 18,  3
13,  4, 19
14, 19, 20
15, 20, 21
16, 21,  5
17,  5, 22
18, 22, 23
19, 23, 24
20, 24,  6
** ... 12 like lines cut
*Nset, nset=_PickedSet2, internal
  1,  2,  3,  4,  5,  6,  7,  8,  9, 10, 11, 12, 16, 17, 18, 19
 20, 21, 22, 23, 24, 25, 26, 27, 31, 32, 33
*Elset, elset=_PickedSet2, internal
  1,  2,  3,  4,  9, 10, 11, 12, 13, 14, 15, 16, 17, 18, 19, 20
 21, 22, 23, 24, 29, 30, 31, 32
*Nset, nset=_PickedSet3, internal
  2,  3,  7,  8, 13, 14, 15, 28, 29, 30
*Elset, elset=_PickedSet3, internal
  5,  6,  7,  8, 25, 26, 27, 28
*Nset, nset=MidPoint
 5,
*Nset, nset=Surface
  4,  5,  6, 19, 20, 21, 22, 23, 24
*Elset, elset=Surface, generate
 13,  20,   1
*Elset, elset=_Surf-1_, internal, generate
 13,  20,   1
*Surface, type=ELEMENT, name=Surf-1
_Surf-1_, 
*Orientation, name=Ori-1
1., 0., 0., 0., 1., 0.
1, 0.
** Section: Section-1  Profile: Thin2
*Beam Section, elset=_PickedSet2, material=My_Aluminium, temperature=GRADIENTS, section=RECT
0.03, 0.002
0.,0.,-1.
** Section: Section-2  Profile: Thin1
*Beam Section, elset=_PickedSet3, material=My_Aluminium, temperature=GRADIENTS, section=RECT
0.002, 0.03
0.,0.,-1.
*End Part
**  
*Part, name=Strut
*Node
      1, -0.237581998,           0.,           0.
      2, -0.217464641,           0.,           0.
      3, -0.197347268,           0.,           0.
      4, -0.177229911,           0.,           0.
      5, -0.157112539,           0.,           0.
      6, -0.136995181,           0.,           0.
      7, -0.116877817,           0.,           0.
      8, -0.0967604518,           0.,           0.
      9, -0.0766430944,           0.,           0.
     10, -0.0565257259,           0.,           0.
     11, -0.0364083648,           0.,           0.
     12, -0.0162909999,           0.,           0.
     13, 0.00382636371,           0.,           0.
     14, 0.0239437278,           0.,           0.
     15, 0.0440610908,           0.,           0.
     16, 0.0641784519,           0.,           0.
     17, 0.0842958167,           0.,           0.
     18,  0.104413182,           0.,           0.
     19,  0.124530546,           0.,           0.
     20,  0.144647911,           0.,           0.
     21,  0.164765269,           0.,           0.
     22,  0.184882641,           0.,           0.
     23,  0.204999998,           0.,           0.
*Element, type=B31
 1,  1,  2
 2,  2,  3
 3,  3,  4
 4,  4,  5
 5,  5,  6
 6,  6,  7
 7,  7,  8
 8,  8,  9
 9,  9, 10
10, 10, 11
11, 11, 12
12, 12, 13
13, 13, 14
14, 14, 15
15, 15, 16
16, 16, 17
17, 17, 18
18, 18, 19
19, 19, 20
20, 20, 21
21, 21, 22
22, 22, 23
*Nset, nset=_PickedSet2, internal, generate
  1,  23,   1
*Elset, elset=_PickedSet2, internal, generate
  1,  22,   1
*Orientation, name=Ori-1
1., 0., 0., 0., 1., 0.
1, 0.
** Section: Circ_section  Profile: Strut_CS
*Beam Section, elset=_PickedSet2, material=My_CFRP, temperature=GRADIENTS, section=CIRC
0.006
0.,0.,-1.
*End Part
**  
**
** ASSEMBLY
**
*Assembly, name=Assembly
**  
*Instance, name=Bipod, part=Bipod
    -0.08359,           0.,    -0.134955
*End Instance
**  
*Instance, name=Bipod-rad-2, part=Bipod
-0.0750794583677289,           0., 0.139868563502341
-0.0750794583677289,           0., 0.139868563502341, -0.0750794583677289, 0.999999982051769, 0.139868563502341,         120.
*End Instance
**  
*Instance, name=Bipod-rad-3, part=Bipod
0.158669458367729,           0., -0.00491356350234115
0.158669458367729,           0., -0.00491356350234115, 0.158669458367729, 0.999999982051769, -0.00491356350234115,         240.
*End Instance
**  
*Instance, name=Strut-1, part=Strut
-1.77054138305233e-17, 0.328033343729921, -0.062509876731378
-1.77054138305233e-17, 0.328033343729921, -0.062509876731378, -1.77054138305233e-17, 0.0231065213578787, 0.889865937504678, 90.0000009805755
*End Instance
**  
*Instance, name=Strut-1-rad-2, part=Strut
-0.0541351412368071, 0.328033343729921, 0.031254938365689
-0.0541351412368071, 0.328033343729921, 0.031254938365689, 0.638936543334555, 0.927646134681318, 0.431400073621831, 114.594299788241
*End Instance
**  
*Instance, name=Strut-1-rad-3, part=Strut
0.0541351412368071, 0.328033343729921, 0.031254938365689
0.0541351412368071, 0.328033343729921, 0.031254938365689, 0.645632730780934, 1.05844930855095, -0.310246364083561, 199.20649260341
*End Instance
**  
*Node
      1,           0.,  0.523270011,           0.
*Node
      2,           0.,  0.210979998,           0.
*Node
      3,           0., 0.0500000007,           0.
*Nset, nset=BP1_strt1_attchmnt_nodes, instance=Bipod, generate
 20,  23,   1
*Nset, nset=BP2_strt2_attchmnt_nodes, instance=Bipod-rad-2, generate
 20,  23,   1
*Nset, nset=BP3_strt3_attchmnt_nodes, instance=Bipod-rad-3, generate
 20,  23,   1
*Nset, nset=BP_S_attchmnt_nodes, instance=Bipod-rad-2
 4, 6
*Nset, nset=BP_S_attchmnt_nodes, instance=Bipod
 4, 6
*Nset, nset=BP_S_attchmnt_nodes, instance=Bipod-rad-3
 4, 6
*Nset, nset=M1_BP_attchmnt_nodes, instance=Bipod-rad-2
 19, 24
*Nset, nset=M1_BP_attchmnt_nodes, instance=Bipod
 19, 24
*Nset, nset=M1_BP_attchmnt_nodes, instance=Bipod-rad-3
 19, 24
*Nset, nset=_PickedSet46, internal
 1,
*Nset, nset=_PickedSet47, internal, instance=Strut-1
 23,
*Nset, nset=_PickedSet47, internal, instance=Strut-1-rad-2
 23,
*Nset, nset=_PickedSet47, internal, instance=Strut-1-rad-3
 23,
*Nset, nset=_PickedSet52, internal, instance=Bipod
 1, 9
*Nset, nset=_PickedSet52, internal, instance=Bipod-rad-2
 1, 9
*Nset, nset=_PickedSet52, internal, instance=Bipod-rad-3
 1, 9
*Nset, nset=_PickedSet53, internal, instance=Strut-1-rad-2
 1,
*Nset, nset=_PickedSet54, internal, instance=Strut-1
 1,
*Nset, nset=_PickedSet55, internal, instance=Strut-1-rad-3
 1,
*Nset, nset=_PickedSet60, internal
 2,
*Nset, nset=_PickedSet65, internal
 3,
*Nset, nset=_PickedSet66, internal, instance=Bipod, generate
  1,  33,   1
*Nset, nset=_PickedSet66, internal, instance=Strut-1-rad-2, generate
  1,  23,   1
*Nset, nset=_PickedSet66, internal, instance=Strut-1-rad-3, generate
  1,  23,   1
*Nset, nset=_PickedSet66, internal, instance=Bipod-rad-2, generate
  1,  33,   1
*Nset, nset=_PickedSet66, internal, instance=Bipod-rad-3, generate
  1,  33,   1
*Nset, nset=_PickedSet66, internal, instance=Strut-1, generate
  1,  23,   1
*Elset, elset=_PickedSet66, internal, instance=Bipod, generate
  1,  32,   1
*Elset, elset=_PickedSet66, internal, instance=Strut-1-rad-2, generate
  1,  22,   1
*Elset, elset=_PickedSet66, internal, instance=Strut-1-rad-3, generate
  1,  22,   1
*Elset, elset=_PickedSet66, internal, instance=Bipod-rad-2, generate
  1,  32,   1
*Elset, elset=_PickedSet66, internal, instance=Bipod-rad-3, generate
  1,  32,   1
*Elset, elset=_PickedSet66, internal, instance=Strut-1, generate
  1,  22,   1
*Nset, nset=_PickedSet67, internal
 1,
*Nset, nset=_PickedSet68, internal
 2,
*Nset, nset=_PickedSet69, internal
 3,
*Surface, type=NODE, name=BP1_strt1_attchmnt_nodes_CNS_, internal
BP1_strt1_attchmnt_nodes, 1.
*Surface, type=NODE, name=_PickedSet54_CNS_, internal
_PickedSet54, 1.
*Surface, type=NODE, name=BP2_strt2_attchmnt_nodes_CNS_, internal
BP2_strt2_attchmnt_nodes, 1.
*Surface, type=NODE, name=_PickedSet53_CNS_, internal
_PickedSet53, 1.
*Surface, type=NODE, name=BP3_strt3_attchmnt_nodes_CNS_, internal
BP3_strt3_attchmnt_nodes, 1.
*Surface, type=NODE, name=_PickedSet55_CNS_, internal
_PickedSet55, 1.
*Surface, type=NODE, name=_PickedSet46_CNS_, internal
_PickedSet46, 1.
*Surface, type=NODE, name=_PickedSet47_CNS_, internal
_PickedSet47, 1.
** Constraint: BP_strt1
*Tie, name=BP_strt1, adjust=yes
_PickedSet54_CNS_, BP1_strt1_attchmnt_nodes_CNS_
** Constraint: BP_strt2
*Tie, name=BP_strt2, adjust=yes
_PickedSet53_CNS_, BP2_strt2_attchmnt_nodes_CNS_
** Constraint: BP_strt3
*Tie, name=BP_strt3, adjust=yes
_PickedSet55_CNS_, BP3_strt3_attchmnt_nodes_CNS_
** Constraint: M1_BP
*Rigid Body, ref node=_PickedSet60, tie nset=M1_BP_attchmnt_nodes
** Constraint: M2_Strt
*Tie, name=M2_Strt, adjust=yes
_PickedSet47_CNS_, _PickedSet46_CNS_
** Constraint: S_BP
*Rigid Body, ref node=_PickedSet65, tie nset=BP_S_attchmnt_nodes
*Element, type=MASS, elset=_PickedSet33_M1_
1, 2
*Mass, elset=_PickedSet33_M1_
4.5, 
*Element, type=MASS, elset=_PickedSet32_M2_
2, 1
*Mass, elset=_PickedSet32_M2_
0.6, 
*Element, type=MASS, elset=_PickedSet34_S_
3, 3
*Mass, elset=_PickedSet34_S_
1.1, 
*End Assembly
*Amplitude, name=Cos_5, definition=PERIODIC
1,              5.,              0.,              0.
             0.,             30.
*Amplitude, name=Cos_60, definition=PERIODIC
1,             60.,              0.,              0.
             0.,             30.
** 
** MATERIALS
** 
*Material, name=My_Aluminium
*Density
2700.,
*Elastic
 6.9e+10, 0.3
*Material, name=My_CFRP
*Density
 29085.3,
*Elastic
 4.1e+11, 0.14
** 
** BOUNDARY CONDITIONS
** 
** Name: Clamped Type: Symmetry/Antisymmetry/Encastre
*Boundary
_PickedSet52, ENCASTRE
** ----------------------------------------------------------------
** 
** STEP: Freq
** 
*Step, name=Freq, nlgeom=NO, perturbation
*Frequency, eigensolver=Lanczos, sim, acoustic coupling=on, normalization=mass
6, , , , , 
** 
** OUTPUT REQUESTS
** 
*Restart, write, frequency=0
** 
** FIELD OUTPUT: F-Output-1
** 
*Output, field
*Node Output
U, 
** 
** HISTORY OUTPUT: H-Output-1
** 
*Output, history
*Energy Output
ALLKE, ALLSE
*End Step
