 Abaqus/Standard Learning Edition 2023                  DATE 13-Mar-2024 TIME 20:50:49
 SUMMARY OF JOB INFORMATION:
 STEP  INC ATT SEVERE EQUIL TOTAL  TOTAL      STEP       INC OF       DOF    IF
               DISCON ITERS ITERS  TIME/    TIME/LPF    TIME/LPF    MONITOR RIKS
               ITERS               FREQ
   1     1   1U    0     4     4  0.00       0.00       1.000     
   1     1   2U    0     4     4  0.00       0.00       0.2500    
   1     1   3U    0     4     4  0.00       0.00       0.06250   
   1     1   4U    0     4     4  0.00       0.00       0.01562   
   1     1   5U    0     4     4  0.00       0.00       0.003906  
                          
 THE ANALYSIS HAS NOT BEEN COMPLETED
